<?xml version="1.0" encoding="UTF-8"?>

<!-- generated on 2025-03-08 17:51:29 by Eclipse SUMO sumo Version 1.21.0
-->

<sumoConfiguration xmlns:xsi="http://www.w3.org/2001/XMLSchema-instance" xsi:noNamespaceSchemaLocation="http://sumo.dlr.de/xsd/sumoConfiguration.xsd">

    <input>
        <net-file value="Square.net.xml"/>
        <route-files value="Square.rou.xml"/>
        <additional-files value="Square.add.xml"/>
    </input>

</sumoConfiguration>
