<?xml version="1.0" encoding="UTF-8"?>

<!-- generated on 2025-03-08 17:51:29 by Eclipse SUMO netedit Version 1.21.0
<neteditConfiguration xmlns:xsi="http://www.w3.org/2001/XMLSchema-instance" xsi:noNamespaceSchemaLocation="http://sumo.dlr.de/xsd/neteditConfiguration.xsd">

    <input>
        <sumocfg-file value="D:\TestSumo\Square.sumocfg"/>
        <additional-files value="D:\TestSumo\Square.add.xml"/>
        <route-files value="D:\TestSumo\Square.rou.xml"/>
        <sumo-net-file value="D:\TestSumo\Square.net.xml"/>
    </input>

    <output>
        <output-file value="D:\TestSumo\Square.net.xml"/>
    </output>

    <processing>
        <offset.disable-normalization value="true"/>
    </processing>

    <junctions>
        <no-turnarounds value="true"/>
    </junctions>

    <netedit>
        <new-network value="false"/>
    </netedit>

</neteditConfiguration>
-->

<net version="1.20" junctionCornerDetail="5" limitTurnSpeed="5.50" xmlns:xsi="http://www.w3.org/2001/XMLSchema-instance" xsi:noNamespaceSchemaLocation="http://sumo.dlr.de/xsd/net_file.xsd">

    <location netOffset="0.00,0.00" convBoundary="-100.00,-100.00,200.00,200.00" origBoundary="10000000000.00,10000000000.00,-10000000000.00,-10000000000.00" projParameter="!"/>

    <edge id=":J0_0" function="internal">
        <lane id=":J0_0_0" index="0" speed="6.51" length="9.03" shape="-4.80,10.40 -5.15,7.95 -6.20,6.20 -7.95,5.15 -10.40,4.80"/>
    </edge>
    <edge id=":J0_1" function="internal">
        <lane id=":J0_1_0" index="0" speed="13.89" length="20.80" shape="-4.80,10.40 -4.80,-10.40"/>
        <lane id=":J0_1_1" index="1" speed="13.89" length="20.80" shape="-1.60,10.40 -1.60,-10.40"/>
    </edge>
    <edge id=":J0_3" function="internal">
        <lane id=":J0_3_0" index="0" speed="9.26" length="5.01" shape="-1.60,10.40 -0.89,5.44"/>
    </edge>
    <edge id=":J0_16" function="internal">
        <lane id=":J0_16_0" index="0" speed="9.26" length="14.34" shape="-0.89,5.44 -0.85,5.15 1.40,1.40 5.15,-0.85 10.40,-1.60"/>
    </edge>
    <edge id=":J0_4" function="internal">
        <lane id=":J0_4_0" index="0" speed="6.51" length="9.03" shape="10.40,4.80 7.95,5.15 6.20,6.20 5.15,7.95 4.80,10.40"/>
    </edge>
    <edge id=":J0_5" function="internal">
        <lane id=":J0_5_0" index="0" speed="13.89" length="20.80" shape="10.40,4.80 -10.40,4.80"/>
        <lane id=":J0_5_1" index="1" speed="13.89" length="20.80" shape="10.40,1.60 -10.40,1.60"/>
    </edge>
    <edge id=":J0_7" function="internal">
        <lane id=":J0_7_0" index="0" speed="9.26" length="5.01" shape="10.40,1.60 5.44,0.89"/>
    </edge>
    <edge id=":J0_17" function="internal">
        <lane id=":J0_17_0" index="0" speed="9.26" length="14.34" shape="5.44,0.89 5.15,0.85 1.40,-1.40 -0.85,-5.15 -1.60,-10.40"/>
    </edge>
    <edge id=":J0_8" function="internal">
        <lane id=":J0_8_0" index="0" speed="6.51" length="9.03" shape="4.80,-10.40 5.15,-7.95 6.20,-6.20 7.95,-5.15 10.40,-4.80"/>
    </edge>
    <edge id=":J0_9" function="internal">
        <lane id=":J0_9_0" index="0" speed="13.89" length="20.80" shape="4.80,-10.40 4.80,10.40"/>
        <lane id=":J0_9_1" index="1" speed="13.89" length="20.80" shape="1.60,-10.40 1.60,10.40"/>
    </edge>
    <edge id=":J0_11" function="internal">
        <lane id=":J0_11_0" index="0" speed="9.26" length="5.01" shape="1.60,-10.40 0.89,-5.44"/>
    </edge>
    <edge id=":J0_18" function="internal">
        <lane id=":J0_18_0" index="0" speed="9.26" length="14.34" shape="0.89,-5.44 0.85,-5.15 -1.40,-1.40 -5.15,0.85 -10.40,1.60"/>
    </edge>
    <edge id=":J0_12" function="internal">
        <lane id=":J0_12_0" index="0" speed="6.51" length="9.03" shape="-10.40,-4.80 -7.95,-5.15 -6.20,-6.20 -5.15,-7.95 -4.80,-10.40"/>
    </edge>
    <edge id=":J0_13" function="internal">
        <lane id=":J0_13_0" index="0" speed="13.89" length="20.80" shape="-10.40,-4.80 10.40,-4.80"/>
        <lane id=":J0_13_1" index="1" speed="13.89" length="20.80" shape="-10.40,-1.60 10.40,-1.60"/>
    </edge>
    <edge id=":J0_15" function="internal">
        <lane id=":J0_15_0" index="0" speed="9.26" length="5.01" shape="-10.40,-1.60 -5.44,-0.89"/>
    </edge>
    <edge id=":J0_19" function="internal">
        <lane id=":J0_19_0" index="0" speed="9.26" length="14.34" shape="-5.44,-0.89 -5.15,-0.85 -1.40,1.40 0.85,5.15 1.60,10.40"/>
    </edge>
    <edge id=":J1_0" function="internal">
        <lane id=":J1_0_0" index="0" speed="6.51" length="9.03" shape="95.20,10.40 94.85,7.95 93.80,6.20 92.05,5.15 89.60,4.80"/>
    </edge>
    <edge id=":J1_1" function="internal">
        <lane id=":J1_1_0" index="0" speed="13.89" length="20.80" shape="95.20,10.40 95.20,-10.40"/>
        <lane id=":J1_1_1" index="1" speed="13.89" length="20.80" shape="98.40,10.40 98.40,-10.40"/>
    </edge>
    <edge id=":J1_3" function="internal">
        <lane id=":J1_3_0" index="0" speed="9.26" length="5.01" shape="98.40,10.40 99.11,5.44"/>
    </edge>
    <edge id=":J1_16" function="internal">
        <lane id=":J1_16_0" index="0" speed="9.26" length="14.34" shape="99.11,5.44 99.15,5.15 101.40,1.40 105.15,-0.85 110.40,-1.60"/>
    </edge>
    <edge id=":J1_4" function="internal">
        <lane id=":J1_4_0" index="0" speed="6.51" length="9.03" shape="110.40,4.80 107.95,5.15 106.20,6.20 105.15,7.95 104.80,10.40"/>
    </edge>
    <edge id=":J1_5" function="internal">
        <lane id=":J1_5_0" index="0" speed="13.89" length="20.80" shape="110.40,4.80 89.60,4.80"/>
        <lane id=":J1_5_1" index="1" speed="13.89" length="20.80" shape="110.40,1.60 89.60,1.60"/>
    </edge>
    <edge id=":J1_7" function="internal">
        <lane id=":J1_7_0" index="0" speed="9.26" length="5.01" shape="110.40,1.60 105.44,0.89"/>
    </edge>
    <edge id=":J1_17" function="internal">
        <lane id=":J1_17_0" index="0" speed="9.26" length="14.34" shape="105.44,0.89 105.15,0.85 101.40,-1.40 99.15,-5.15 98.40,-10.40"/>
    </edge>
    <edge id=":J1_8" function="internal">
        <lane id=":J1_8_0" index="0" speed="6.51" length="9.03" shape="104.80,-10.40 105.15,-7.95 106.20,-6.20 107.95,-5.15 110.40,-4.80"/>
    </edge>
    <edge id=":J1_9" function="internal">
        <lane id=":J1_9_0" index="0" speed="13.89" length="20.80" shape="104.80,-10.40 104.80,10.40"/>
        <lane id=":J1_9_1" index="1" speed="13.89" length="20.80" shape="101.60,-10.40 101.60,10.40"/>
    </edge>
    <edge id=":J1_11" function="internal">
        <lane id=":J1_11_0" index="0" speed="9.26" length="5.01" shape="101.60,-10.40 100.89,-5.44"/>
    </edge>
    <edge id=":J1_18" function="internal">
        <lane id=":J1_18_0" index="0" speed="9.26" length="14.34" shape="100.89,-5.44 100.85,-5.15 98.60,-1.40 94.85,0.85 89.60,1.60"/>
    </edge>
    <edge id=":J1_12" function="internal">
        <lane id=":J1_12_0" index="0" speed="6.51" length="9.03" shape="89.60,-4.80 92.05,-5.15 93.80,-6.20 94.85,-7.95 95.20,-10.40"/>
    </edge>
    <edge id=":J1_13" function="internal">
        <lane id=":J1_13_0" index="0" speed="13.89" length="20.80" shape="89.60,-4.80 110.40,-4.80"/>
        <lane id=":J1_13_1" index="1" speed="13.89" length="20.80" shape="89.60,-1.60 110.40,-1.60"/>
    </edge>
    <edge id=":J1_15" function="internal">
        <lane id=":J1_15_0" index="0" speed="9.26" length="5.01" shape="89.60,-1.60 94.56,-0.89"/>
    </edge>
    <edge id=":J1_19" function="internal">
        <lane id=":J1_19_0" index="0" speed="9.26" length="14.34" shape="94.56,-0.89 94.85,-0.85 98.60,1.40 100.85,5.15 101.60,10.40"/>
    </edge>
    <edge id=":J2_0" function="internal">
        <lane id=":J2_0_0" index="0" speed="6.51" length="9.03" shape="-4.80,110.40 -5.15,107.95 -6.20,106.20 -7.95,105.15 -10.40,104.80"/>
    </edge>
    <edge id=":J2_1" function="internal">
        <lane id=":J2_1_0" index="0" speed="13.89" length="20.80" shape="-4.80,110.40 -4.80,89.60"/>
        <lane id=":J2_1_1" index="1" speed="13.89" length="20.80" shape="-1.60,110.40 -1.60,89.60"/>
    </edge>
    <edge id=":J2_3" function="internal">
        <lane id=":J2_3_0" index="0" speed="9.26" length="5.01" shape="-1.60,110.40 -0.89,105.44"/>
    </edge>
    <edge id=":J2_16" function="internal">
        <lane id=":J2_16_0" index="0" speed="9.26" length="14.34" shape="-0.89,105.44 -0.85,105.15 1.40,101.40 5.15,99.15 10.40,98.40"/>
    </edge>
    <edge id=":J2_4" function="internal">
        <lane id=":J2_4_0" index="0" speed="6.51" length="9.03" shape="10.40,104.80 7.95,105.15 6.20,106.20 5.15,107.95 4.80,110.40"/>
    </edge>
    <edge id=":J2_5" function="internal">
        <lane id=":J2_5_0" index="0" speed="13.89" length="20.80" shape="10.40,104.80 -10.40,104.80"/>
        <lane id=":J2_5_1" index="1" speed="13.89" length="20.80" shape="10.40,101.60 -10.40,101.60"/>
    </edge>
    <edge id=":J2_7" function="internal">
        <lane id=":J2_7_0" index="0" speed="9.26" length="5.01" shape="10.40,101.60 5.44,100.89"/>
    </edge>
    <edge id=":J2_17" function="internal">
        <lane id=":J2_17_0" index="0" speed="9.26" length="14.34" shape="5.44,100.89 5.15,100.85 1.40,98.60 -0.85,94.85 -1.60,89.60"/>
    </edge>
    <edge id=":J2_8" function="internal">
        <lane id=":J2_8_0" index="0" speed="6.51" length="9.03" shape="4.80,89.60 5.15,92.05 6.20,93.80 7.95,94.85 10.40,95.20"/>
    </edge>
    <edge id=":J2_9" function="internal">
        <lane id=":J2_9_0" index="0" speed="13.89" length="20.80" shape="4.80,89.60 4.80,110.40"/>
        <lane id=":J2_9_1" index="1" speed="13.89" length="20.80" shape="1.60,89.60 1.60,110.40"/>
    </edge>
    <edge id=":J2_11" function="internal">
        <lane id=":J2_11_0" index="0" speed="9.26" length="5.01" shape="1.60,89.60 0.89,94.56"/>
    </edge>
    <edge id=":J2_18" function="internal">
        <lane id=":J2_18_0" index="0" speed="9.26" length="14.34" shape="0.89,94.56 0.85,94.85 -1.40,98.60 -5.15,100.85 -10.40,101.60"/>
    </edge>
    <edge id=":J2_12" function="internal">
        <lane id=":J2_12_0" index="0" speed="6.51" length="9.03" shape="-10.40,95.20 -7.95,94.85 -6.20,93.80 -5.15,92.05 -4.80,89.60"/>
    </edge>
    <edge id=":J2_13" function="internal">
        <lane id=":J2_13_0" index="0" speed="13.89" length="20.80" shape="-10.40,95.20 10.40,95.20"/>
        <lane id=":J2_13_1" index="1" speed="13.89" length="20.80" shape="-10.40,98.40 10.40,98.40"/>
    </edge>
    <edge id=":J2_15" function="internal">
        <lane id=":J2_15_0" index="0" speed="9.26" length="5.01" shape="-10.40,98.40 -5.44,99.11"/>
    </edge>
    <edge id=":J2_19" function="internal">
        <lane id=":J2_19_0" index="0" speed="9.26" length="14.34" shape="-5.44,99.11 -5.15,99.15 -1.40,101.40 0.85,105.15 1.60,110.40"/>
    </edge>
    <edge id=":J3_0" function="internal">
        <lane id=":J3_0_0" index="0" speed="6.51" length="9.03" shape="95.20,110.40 94.85,107.95 93.80,106.20 92.05,105.15 89.60,104.80"/>
    </edge>
    <edge id=":J3_1" function="internal">
        <lane id=":J3_1_0" index="0" speed="13.89" length="20.80" shape="95.20,110.40 95.20,89.60"/>
        <lane id=":J3_1_1" index="1" speed="13.89" length="20.80" shape="98.40,110.40 98.40,89.60"/>
    </edge>
    <edge id=":J3_3" function="internal">
        <lane id=":J3_3_0" index="0" speed="9.26" length="5.01" shape="98.40,110.40 99.11,105.44"/>
    </edge>
    <edge id=":J3_16" function="internal">
        <lane id=":J3_16_0" index="0" speed="9.26" length="14.34" shape="99.11,105.44 99.15,105.15 101.40,101.40 105.15,99.15 110.40,98.40"/>
    </edge>
    <edge id=":J3_4" function="internal">
        <lane id=":J3_4_0" index="0" speed="6.51" length="9.03" shape="110.40,104.80 107.95,105.15 106.20,106.20 105.15,107.95 104.80,110.40"/>
    </edge>
    <edge id=":J3_5" function="internal">
        <lane id=":J3_5_0" index="0" speed="13.89" length="20.80" shape="110.40,104.80 89.60,104.80"/>
        <lane id=":J3_5_1" index="1" speed="13.89" length="20.80" shape="110.40,101.60 89.60,101.60"/>
    </edge>
    <edge id=":J3_7" function="internal">
        <lane id=":J3_7_0" index="0" speed="9.26" length="5.01" shape="110.40,101.60 105.44,100.89"/>
    </edge>
    <edge id=":J3_17" function="internal">
        <lane id=":J3_17_0" index="0" speed="9.26" length="14.34" shape="105.44,100.89 105.15,100.85 101.40,98.60 99.15,94.85 98.40,89.60"/>
    </edge>
    <edge id=":J3_8" function="internal">
        <lane id=":J3_8_0" index="0" speed="6.51" length="9.03" shape="104.80,89.60 105.15,92.05 106.20,93.80 107.95,94.85 110.40,95.20"/>
    </edge>
    <edge id=":J3_9" function="internal">
        <lane id=":J3_9_0" index="0" speed="13.89" length="20.80" shape="104.80,89.60 104.80,110.40"/>
        <lane id=":J3_9_1" index="1" speed="13.89" length="20.80" shape="101.60,89.60 101.60,110.40"/>
    </edge>
    <edge id=":J3_11" function="internal">
        <lane id=":J3_11_0" index="0" speed="9.26" length="5.01" shape="101.60,89.60 100.89,94.56"/>
    </edge>
    <edge id=":J3_18" function="internal">
        <lane id=":J3_18_0" index="0" speed="9.26" length="14.34" shape="100.89,94.56 100.85,94.85 98.60,98.60 94.85,100.85 89.60,101.60"/>
    </edge>
    <edge id=":J3_12" function="internal">
        <lane id=":J3_12_0" index="0" speed="6.51" length="9.03" shape="89.60,95.20 92.05,94.85 93.80,93.80 94.85,92.05 95.20,89.60"/>
    </edge>
    <edge id=":J3_13" function="internal">
        <lane id=":J3_13_0" index="0" speed="13.89" length="20.80" shape="89.60,95.20 110.40,95.20"/>
        <lane id=":J3_13_1" index="1" speed="13.89" length="20.80" shape="89.60,98.40 110.40,98.40"/>
    </edge>
    <edge id=":J3_15" function="internal">
        <lane id=":J3_15_0" index="0" speed="9.26" length="5.01" shape="89.60,98.40 94.56,99.11"/>
    </edge>
    <edge id=":J3_19" function="internal">
        <lane id=":J3_19_0" index="0" speed="9.26" length="14.34" shape="94.56,99.11 94.85,99.15 98.60,101.40 100.85,105.15 101.60,110.40"/>
    </edge>

    <edge id="-E0" from="J1" to="J0" priority="-1">
        <lane id="-E0_0" index="0" speed="13.89" length="79.20" shape="89.60,4.80 10.40,4.80"/>
        <lane id="-E0_1" index="1" speed="13.89" length="79.20" shape="89.60,1.60 10.40,1.60"/>
    </edge>
    <edge id="-E1" from="J3" to="J2" priority="-1">
        <lane id="-E1_0" index="0" speed="13.89" length="79.20" shape="89.60,104.80 10.40,104.80"/>
        <lane id="-E1_1" index="1" speed="13.89" length="79.20" shape="89.60,101.60 10.40,101.60"/>
    </edge>
    <edge id="-E10" from="J10" to="J0" priority="-1">
        <lane id="-E10_0" index="0" speed="13.89" length="89.60" shape="4.80,-100.00 4.80,-10.40"/>
        <lane id="-E10_1" index="1" speed="13.89" length="89.60" shape="1.60,-100.00 1.60,-10.40"/>
    </edge>
    <edge id="-E11" from="J11" to="J1" priority="-1">
        <lane id="-E11_0" index="0" speed="13.89" length="89.60" shape="104.80,-100.00 104.80,-10.40"/>
        <lane id="-E11_1" index="1" speed="13.89" length="89.60" shape="101.60,-100.00 101.60,-10.40"/>
    </edge>
    <edge id="-E2" from="J0" to="J4" priority="-1">
        <lane id="-E2_0" index="0" speed="13.89" length="89.60" shape="-10.40,4.80 -100.00,4.80"/>
        <lane id="-E2_1" index="1" speed="13.89" length="89.60" shape="-10.40,1.60 -100.00,1.60"/>
    </edge>
    <edge id="-E3" from="J0" to="J2" priority="-1">
        <lane id="-E3_0" index="0" speed="13.89" length="79.20" shape="4.80,10.40 4.80,89.60"/>
        <lane id="-E3_1" index="1" speed="13.89" length="79.20" shape="1.60,10.40 1.60,89.60"/>
    </edge>
    <edge id="-E4" from="J5" to="J2" priority="-1">
        <lane id="-E4_0" index="0" speed="13.89" length="89.60" shape="-4.80,200.00 -4.80,110.40"/>
        <lane id="-E4_1" index="1" speed="13.89" length="89.60" shape="-1.60,200.00 -1.60,110.40"/>
    </edge>
    <edge id="-E5" from="J6" to="J2" priority="-1">
        <lane id="-E5_0" index="0" speed="13.89" length="89.60" shape="-100.00,95.20 -10.40,95.20"/>
        <lane id="-E5_1" index="1" speed="13.89" length="89.60" shape="-100.00,98.40 -10.40,98.40"/>
    </edge>
    <edge id="-E6" from="J7" to="J3" priority="-1">
        <lane id="-E6_0" index="0" speed="13.89" length="89.60" shape="95.20,200.00 95.20,110.40"/>
        <lane id="-E6_1" index="1" speed="13.89" length="89.60" shape="98.40,200.00 98.40,110.40"/>
    </edge>
    <edge id="-E7" from="J1" to="J3" priority="-1">
        <lane id="-E7_0" index="0" speed="13.89" length="79.20" shape="104.80,10.40 104.80,89.60"/>
        <lane id="-E7_1" index="1" speed="13.89" length="79.20" shape="101.60,10.40 101.60,89.60"/>
    </edge>
    <edge id="-E8" from="J8" to="J3" priority="-1">
        <lane id="-E8_0" index="0" speed="13.89" length="89.60" shape="200.00,104.80 110.40,104.80"/>
        <lane id="-E8_1" index="1" speed="13.89" length="89.60" shape="200.00,101.60 110.40,101.60"/>
    </edge>
    <edge id="-E9" from="J9" to="J1" priority="-1">
        <lane id="-E9_0" index="0" speed="13.89" length="89.60" shape="200.00,4.80 110.40,4.80"/>
        <lane id="-E9_1" index="1" speed="13.89" length="89.60" shape="200.00,1.60 110.40,1.60"/>
    </edge>
    <edge id="E0" from="J0" to="J1" priority="-1">
        <lane id="E0_0" index="0" speed="13.89" length="79.20" shape="10.40,-4.80 89.60,-4.80"/>
        <lane id="E0_1" index="1" speed="13.89" length="79.20" shape="10.40,-1.60 89.60,-1.60"/>
    </edge>
    <edge id="E1" from="J2" to="J3" priority="-1">
        <lane id="E1_0" index="0" speed="13.89" length="79.20" shape="10.40,95.20 89.60,95.20"/>
        <lane id="E1_1" index="1" speed="13.89" length="79.20" shape="10.40,98.40 89.60,98.40"/>
    </edge>
    <edge id="E10" from="J0" to="J10" priority="-1">
        <lane id="E10_0" index="0" speed="13.89" length="89.60" shape="-4.80,-10.40 -4.80,-100.00"/>
        <lane id="E10_1" index="1" speed="13.89" length="89.60" shape="-1.60,-10.40 -1.60,-100.00"/>
    </edge>
    <edge id="E11" from="J1" to="J11" priority="-1">
        <lane id="E11_0" index="0" speed="13.89" length="89.60" shape="95.20,-10.40 95.20,-100.00"/>
        <lane id="E11_1" index="1" speed="13.89" length="89.60" shape="98.40,-10.40 98.40,-100.00"/>
    </edge>
    <edge id="E2" from="J4" to="J0" priority="-1">
        <lane id="E2_0" index="0" speed="13.89" length="89.60" shape="-100.00,-4.80 -10.40,-4.80"/>
        <lane id="E2_1" index="1" speed="13.89" length="89.60" shape="-100.00,-1.60 -10.40,-1.60"/>
    </edge>
    <edge id="E3" from="J2" to="J0" priority="-1">
        <lane id="E3_0" index="0" speed="13.89" length="79.20" shape="-4.80,89.60 -4.80,10.40"/>
        <lane id="E3_1" index="1" speed="13.89" length="79.20" shape="-1.60,89.60 -1.60,10.40"/>
    </edge>
    <edge id="E4" from="J2" to="J5" priority="-1">
        <lane id="E4_0" index="0" speed="13.89" length="89.60" shape="4.80,110.40 4.80,200.00"/>
        <lane id="E4_1" index="1" speed="13.89" length="89.60" shape="1.60,110.40 1.60,200.00"/>
    </edge>
    <edge id="E5" from="J2" to="J6" priority="-1">
        <lane id="E5_0" index="0" speed="13.89" length="89.60" shape="-10.40,104.80 -100.00,104.80"/>
        <lane id="E5_1" index="1" speed="13.89" length="89.60" shape="-10.40,101.60 -100.00,101.60"/>
    </edge>
    <edge id="E6" from="J3" to="J7" priority="-1">
        <lane id="E6_0" index="0" speed="13.89" length="89.60" shape="104.80,110.40 104.80,200.00"/>
        <lane id="E6_1" index="1" speed="13.89" length="89.60" shape="101.60,110.40 101.60,200.00"/>
    </edge>
    <edge id="E7" from="J3" to="J1" priority="-1">
        <lane id="E7_0" index="0" speed="13.89" length="79.20" shape="95.20,89.60 95.20,10.40"/>
        <lane id="E7_1" index="1" speed="13.89" length="79.20" shape="98.40,89.60 98.40,10.40"/>
    </edge>
    <edge id="E8" from="J3" to="J8" priority="-1">
        <lane id="E8_0" index="0" speed="13.89" length="89.60" shape="110.40,95.20 200.00,95.20"/>
        <lane id="E8_1" index="1" speed="13.89" length="89.60" shape="110.40,98.40 200.00,98.40"/>
    </edge>
    <edge id="E9" from="J1" to="J9" priority="-1">
        <lane id="E9_0" index="0" speed="13.89" length="89.60" shape="110.40,-4.80 200.00,-4.80"/>
        <lane id="E9_1" index="1" speed="13.89" length="89.60" shape="110.40,-1.60 200.00,-1.60"/>
    </edge>

    <tlLogic id="J0" type="static" programID="0" offset="0">
        <phase duration="42" state="GGGgrrrrGGGgrrrr"/>
        <phase duration="3"  state="yyyyrrrryyyyrrrr"/>
        <phase duration="42" state="rrrrGGGgrrrrGGGg"/>
        <phase duration="3"  state="rrrryyyyrrrryyyy"/>
    </tlLogic>
    <tlLogic id="J1" type="static" programID="0" offset="0">
        <phase duration="42" state="GGGgrrrrGGGgrrrr"/>
        <phase duration="3"  state="yyyyrrrryyyyrrrr"/>
        <phase duration="42" state="rrrrGGGgrrrrGGGg"/>
        <phase duration="3"  state="rrrryyyyrrrryyyy"/>
    </tlLogic>
    <tlLogic id="J2" type="static" programID="0" offset="0">
        <phase duration="42" state="GGGgrrrrGGGgrrrr"/>
        <phase duration="3"  state="yyyyrrrryyyyrrrr"/>
        <phase duration="42" state="rrrrGGGgrrrrGGGg"/>
        <phase duration="3"  state="rrrryyyyrrrryyyy"/>
    </tlLogic>
    <tlLogic id="J3" type="static" programID="0" offset="0">
        <phase duration="42" state="GGGgrrrrGGGgrrrr"/>
        <phase duration="3"  state="yyyyrrrryyyyrrrr"/>
        <phase duration="42" state="rrrrGGGgrrrrGGGg"/>
        <phase duration="3"  state="rrrryyyyrrrryyyy"/>
    </tlLogic>

    <junction id="J0" type="traffic_light" x="0.00" y="0.00" incLanes="E3_0 E3_1 -E0_0 -E0_1 -E10_0 -E10_1 E2_0 E2_1" intLanes=":J0_0_0 :J0_1_0 :J0_1_1 :J0_16_0 :J0_4_0 :J0_5_0 :J0_5_1 :J0_17_0 :J0_8_0 :J0_9_0 :J0_9_1 :J0_18_0 :J0_12_0 :J0_13_0 :J0_13_1 :J0_19_0" shape="-6.40,10.40 6.40,10.40 6.84,8.18 7.40,7.40 8.18,6.84 9.18,6.51 10.40,6.40 10.40,-6.40 8.18,-6.84 7.40,-7.40 6.84,-8.18 6.51,-9.18 6.40,-10.40 -6.40,-10.40 -6.84,-8.18 -7.40,-7.40 -8.18,-6.84 -9.18,-6.51 -10.40,-6.40 -10.40,6.40 -8.18,6.84 -7.40,7.40 -6.84,8.18 -6.51,9.18">
        <request index="0"  response="0000000000000000" foes="0000000001100000" cont="0"/>
        <request index="1"  response="1000000010000000" foes="1111100011100000" cont="0"/>
        <request index="2"  response="1000000010000000" foes="1111100011100000" cont="0"/>
        <request index="3"  response="1000011010000000" foes="1110011011100000" cont="1"/>
        <request index="4"  response="0000011000000000" foes="0000011000000000" cont="0"/>
        <request index="5"  response="0000111000001111" foes="1000111000001111" cont="0"/>
        <request index="6"  response="0000111000001111" foes="1000111000001111" cont="0"/>
        <request index="7"  response="0110111000001110" foes="0110111000001110" cont="1"/>
        <request index="8"  response="0000000000000000" foes="0110000000000000" cont="0"/>
        <request index="9"  response="1000000010000000" foes="1110000011111000" cont="0"/>
        <request index="10" response="1000000010000000" foes="1110000011111000" cont="0"/>
        <request index="11" response="1000000010000110" foes="1110000011100110" cont="1"/>
        <request index="12" response="0000000000000110" foes="0000000000000110" cont="0"/>
        <request index="13" response="0000111100001110" foes="0000111110001110" cont="0"/>
        <request index="14" response="0000111100001110" foes="0000111110001110" cont="0"/>
        <request index="15" response="0000111001101110" foes="0000111001101110" cont="1"/>
    </junction>
    <junction id="J1" type="traffic_light" x="100.00" y="0.00" incLanes="E7_0 E7_1 -E9_0 -E9_1 -E11_0 -E11_1 E0_0 E0_1" intLanes=":J1_0_0 :J1_1_0 :J1_1_1 :J1_16_0 :J1_4_0 :J1_5_0 :J1_5_1 :J1_17_0 :J1_8_0 :J1_9_0 :J1_9_1 :J1_18_0 :J1_12_0 :J1_13_0 :J1_13_1 :J1_19_0" shape="93.60,10.40 106.40,10.40 106.84,8.18 107.40,7.40 108.18,6.84 109.18,6.51 110.40,6.40 110.40,-6.40 108.18,-6.84 107.40,-7.40 106.84,-8.18 106.51,-9.18 106.40,-10.40 93.60,-10.40 93.16,-8.18 92.60,-7.40 91.82,-6.84 90.82,-6.51 89.60,-6.40 89.60,6.40 91.82,6.84 92.60,7.40 93.16,8.18 93.49,9.18">
        <request index="0"  response="0000000000000000" foes="0000000001100000" cont="0"/>
        <request index="1"  response="1000000010000000" foes="1111100011100000" cont="0"/>
        <request index="2"  response="1000000010000000" foes="1111100011100000" cont="0"/>
        <request index="3"  response="1000011010000000" foes="1110011011100000" cont="1"/>
        <request index="4"  response="0000011000000000" foes="0000011000000000" cont="0"/>
        <request index="5"  response="0000111000001111" foes="1000111000001111" cont="0"/>
        <request index="6"  response="0000111000001111" foes="1000111000001111" cont="0"/>
        <request index="7"  response="0110111000001110" foes="0110111000001110" cont="1"/>
        <request index="8"  response="0000000000000000" foes="0110000000000000" cont="0"/>
        <request index="9"  response="1000000010000000" foes="1110000011111000" cont="0"/>
        <request index="10" response="1000000010000000" foes="1110000011111000" cont="0"/>
        <request index="11" response="1000000010000110" foes="1110000011100110" cont="1"/>
        <request index="12" response="0000000000000110" foes="0000000000000110" cont="0"/>
        <request index="13" response="0000111100001110" foes="0000111110001110" cont="0"/>
        <request index="14" response="0000111100001110" foes="0000111110001110" cont="0"/>
        <request index="15" response="0000111001101110" foes="0000111001101110" cont="1"/>
    </junction>
    <junction id="J10" type="dead_end" x="0.00" y="-100.00" incLanes="E10_0 E10_1" intLanes="" shape="0.00,-100.00 -6.40,-100.00 0.00,-100.00"/>
    <junction id="J11" type="dead_end" x="100.00" y="-100.00" incLanes="E11_0 E11_1" intLanes="" shape="100.00,-100.00 93.60,-100.00 100.00,-100.00"/>
    <junction id="J2" type="traffic_light" x="0.00" y="100.00" incLanes="-E4_0 -E4_1 -E1_0 -E1_1 -E3_0 -E3_1 -E5_0 -E5_1" intLanes=":J2_0_0 :J2_1_0 :J2_1_1 :J2_16_0 :J2_4_0 :J2_5_0 :J2_5_1 :J2_17_0 :J2_8_0 :J2_9_0 :J2_9_1 :J2_18_0 :J2_12_0 :J2_13_0 :J2_13_1 :J2_19_0" shape="-6.40,110.40 6.40,110.40 6.84,108.18 7.40,107.40 8.18,106.84 9.18,106.51 10.40,106.40 10.40,93.60 8.18,93.16 7.40,92.60 6.84,91.82 6.51,90.82 6.40,89.60 -6.40,89.60 -6.84,91.82 -7.40,92.60 -8.18,93.16 -9.18,93.49 -10.40,93.60 -10.40,106.40 -8.18,106.84 -7.40,107.40 -6.84,108.18 -6.51,109.18">
        <request index="0"  response="0000000000000000" foes="0000000001100000" cont="0"/>
        <request index="1"  response="1000000010000000" foes="1111100011100000" cont="0"/>
        <request index="2"  response="1000000010000000" foes="1111100011100000" cont="0"/>
        <request index="3"  response="1000011010000000" foes="1110011011100000" cont="1"/>
        <request index="4"  response="0000011000000000" foes="0000011000000000" cont="0"/>
        <request index="5"  response="0000111000001111" foes="1000111000001111" cont="0"/>
        <request index="6"  response="0000111000001111" foes="1000111000001111" cont="0"/>
        <request index="7"  response="0110111000001110" foes="0110111000001110" cont="1"/>
        <request index="8"  response="0000000000000000" foes="0110000000000000" cont="0"/>
        <request index="9"  response="1000000010000000" foes="1110000011111000" cont="0"/>
        <request index="10" response="1000000010000000" foes="1110000011111000" cont="0"/>
        <request index="11" response="1000000010000110" foes="1110000011100110" cont="1"/>
        <request index="12" response="0000000000000110" foes="0000000000000110" cont="0"/>
        <request index="13" response="0000111100001110" foes="0000111110001110" cont="0"/>
        <request index="14" response="0000111100001110" foes="0000111110001110" cont="0"/>
        <request index="15" response="0000111001101110" foes="0000111001101110" cont="1"/>
    </junction>
    <junction id="J3" type="traffic_light" x="100.00" y="100.00" incLanes="-E6_0 -E6_1 -E8_0 -E8_1 -E7_0 -E7_1 E1_0 E1_1" intLanes=":J3_0_0 :J3_1_0 :J3_1_1 :J3_16_0 :J3_4_0 :J3_5_0 :J3_5_1 :J3_17_0 :J3_8_0 :J3_9_0 :J3_9_1 :J3_18_0 :J3_12_0 :J3_13_0 :J3_13_1 :J3_19_0" shape="93.60,110.40 106.40,110.40 106.84,108.18 107.40,107.40 108.18,106.84 109.18,106.51 110.40,106.40 110.40,93.60 108.18,93.16 107.40,92.60 106.84,91.82 106.51,90.82 106.40,89.60 93.60,89.60 93.16,91.82 92.60,92.60 91.82,93.16 90.82,93.49 89.60,93.60 89.60,106.40 91.82,106.84 92.60,107.40 93.16,108.18 93.49,109.18">
        <request index="0"  response="0000000000000000" foes="0000000001100000" cont="0"/>
        <request index="1"  response="1000000010000000" foes="1111100011100000" cont="0"/>
        <request index="2"  response="1000000010000000" foes="1111100011100000" cont="0"/>
        <request index="3"  response="1000011010000000" foes="1110011011100000" cont="1"/>
        <request index="4"  response="0000011000000000" foes="0000011000000000" cont="0"/>
        <request index="5"  response="0000111000001111" foes="1000111000001111" cont="0"/>
        <request index="6"  response="0000111000001111" foes="1000111000001111" cont="0"/>
        <request index="7"  response="0110111000001110" foes="0110111000001110" cont="1"/>
        <request index="8"  response="0000000000000000" foes="0110000000000000" cont="0"/>
        <request index="9"  response="1000000010000000" foes="1110000011111000" cont="0"/>
        <request index="10" response="1000000010000000" foes="1110000011111000" cont="0"/>
        <request index="11" response="1000000010000110" foes="1110000011100110" cont="1"/>
        <request index="12" response="0000000000000110" foes="0000000000000110" cont="0"/>
        <request index="13" response="0000111100001110" foes="0000111110001110" cont="0"/>
        <request index="14" response="0000111100001110" foes="0000111110001110" cont="0"/>
        <request index="15" response="0000111001101110" foes="0000111001101110" cont="1"/>
    </junction>