<?xml version="1.0" encoding="UTF-8"?>

<!-- generated on 2025-03-01 16:44:01 by Eclipse SUMO sumo Version 1.21.0
-->

<sumoConfiguration xmlns:xsi="http://www.w3.org/2001/XMLSchema-instance" xsi:noNamespaceSchemaLocation="http://sumo.dlr.de/xsd/sumoConfiguration.xsd">

    <input>
        <net-file value="Test3.net.xml"/>
        <route-files value="Test3.rou.xml"/>
        <additional-files value="Test3.add.xml"/>
    </input>

    <configuration>
        <time>
            <begin value="0"/>
            <end value="1000"/>  <!-- Extend the duration -->
        </time>
    </configuration>

</sumoConfiguration>
