<?xml version="1.0" encoding="UTF-8"?>

<!-- generated on 2025-03-01 16:44:01 by Eclipse SUMO netedit Version 1.21.0
<neteditConfiguration xmlns:xsi="http://www.w3.org/2001/XMLSchema-instance" xsi:noNamespaceSchemaLocation="http://sumo.dlr.de/xsd/neteditConfiguration.xsd">

    <input>
        <sumocfg-file value="D:\TestSumo\Test3.sumocfg"/>
        <additional-files value="D:\TestSumo\Test3.add.xml"/>
        <route-files value="D:\TestSumo\Test3.rou.xml"/>
        <sumo-net-file value="D:\TestSumo\Test3.net.xml"/>
    </input>

    <output>
        <output-file value="D:\TestSumo\Test3.net.xml"/>
    </output>

    <processing>
        <offset.disable-normalization value="true"/>
    </processing>

    <junctions>
        <no-turnarounds value="true"/>
    </junctions>

    <netedit>
        <new-network value="false"/>
    </netedit>

</neteditConfiguration>
-->

<net version="1.20" junctionCornerDetail="5" limitTurnSpeed="5.50" xmlns:xsi="http://www.w3.org/2001/XMLSchema-instance" xsi:noNamespaceSchemaLocation="http://sumo.dlr.de/xsd/net_file.xsd">

    <location netOffset="0.00,0.00" convBoundary="-69.31,-56.90,71.13,66.44" origBoundary="10000000000.00,10000000000.00,-10000000000.00,-10000000000.00" projParameter="!"/>

    <edge id=":clusterJ4_J5_J6_J7_0" function="internal">
        <lane id=":clusterJ4_J5_J6_J7_0_0" index="0" speed="6.50" length="9.03" shape="3.75,3.85 1.30,4.19 -0.46,5.23 -1.52,6.98 -1.87,9.43"/>
    </edge>
    <edge id=":clusterJ4_J5_J6_J7_1" function="internal">
        <lane id=":clusterJ4_J5_J6_J7_1_0" index="0" speed="13.89" length="20.82" shape="3.75,3.85 -17.07,3.75"/>
        <lane id=":clusterJ4_J5_J6_J7_1_1" index="1" speed="13.89" length="20.82" shape="3.76,0.65 -17.05,0.55"/>
    </edge>
    <edge id=":clusterJ4_J5_J6_J7_3" function="internal">
        <lane id=":clusterJ4_J5_J6_J7_3_0" index="0" speed="9.27" length="5.01" shape="3.76,0.65 -1.20,-0.08"/>
    </edge>
    <edge id=":clusterJ4_J5_J6_J7_16" function="internal">
        <lane id=":clusterJ4_J5_J6_J7_16_0" index="0" speed="9.27" length="14.35" shape="-1.20,-0.08 -1.49,-0.12 -5.23,-2.39 -7.47,-6.15 -8.20,-11.41"/>
    </edge>
    <edge id=":clusterJ4_J5_J6_J7_4" function="internal">
        <lane id=":clusterJ4_J5_J6_J7_4_0" index="0" speed="6.52" length="9.06" shape="-1.80,-11.39 -1.46,-8.93 -0.41,-7.17 1.34,-6.11 3.79,-5.75"/>
    </edge>
    <edge id=":clusterJ4_J5_J6_J7_5" function="internal">
        <lane id=":clusterJ4_J5_J6_J7_5_0" index="0" speed="13.89" length="20.82" shape="-1.80,-11.39 -1.87,9.43"/>
        <lane id=":clusterJ4_J5_J6_J7_5_1" index="1" speed="13.89" length="20.82" shape="-5.00,-11.40 -5.07,9.42"/>
    </edge>
    <edge id=":clusterJ4_J5_J6_J7_7" function="internal">
        <lane id=":clusterJ4_J5_J6_J7_7_0" index="0" speed="9.26" length="5.01" shape="-5.00,-11.40 -5.73,-6.44"/>
    </edge>
    <edge id=":clusterJ4_J5_J6_J7_17" function="internal">
        <lane id=":clusterJ4_J5_J6_J7_17_0" index="0" speed="9.26" length="14.35" shape="-5.73,-6.44 -5.77,-6.15 -8.03,-2.41 -11.80,-0.17 -17.05,0.55"/>
    </edge>
    <edge id=":clusterJ4_J5_J6_J7_8" function="internal">
        <lane id=":clusterJ4_J5_J6_J7_8_0" index="0" speed="6.50" length="9.03" shape="-17.02,-5.85 -14.57,-6.18 -12.82,-7.23 -11.76,-8.97 -11.40,-11.42"/>
    </edge>
    <edge id=":clusterJ4_J5_J6_J7_9" function="internal">
        <lane id=":clusterJ4_J5_J6_J7_9_0" index="0" speed="13.89" length="20.82" shape="-17.02,-5.85 3.79,-5.75"/>
        <lane id=":clusterJ4_J5_J6_J7_9_1" index="1" speed="13.89" length="20.82" shape="-17.04,-2.65 3.78,-2.55"/>
    </edge>
    <edge id=":clusterJ4_J5_J6_J7_11" function="internal">
        <lane id=":clusterJ4_J5_J6_J7_11_0" index="0" speed="9.27" length="5.01" shape="-17.04,-2.65 -12.08,-1.91"/>
    </edge>
    <edge id=":clusterJ4_J5_J6_J7_18" function="internal">
        <lane id=":clusterJ4_J5_J6_J7_18_0" index="0" speed="9.27" length="14.35" shape="-12.08,-1.91 -11.79,-1.87 -8.04,0.40 -5.81,4.16 -5.07,9.42"/>
    </edge>
    <edge id=":clusterJ4_J5_J6_J7_12" function="internal">
        <lane id=":clusterJ4_J5_J6_J7_12_0" index="0" speed="6.52" length="9.06" shape="-11.47,9.39 -11.82,6.94 -12.86,5.18 -14.61,4.12 -17.07,3.75"/>
    </edge>
    <edge id=":clusterJ4_J5_J6_J7_13" function="internal">
        <lane id=":clusterJ4_J5_J6_J7_13_0" index="0" speed="13.89" length="20.82" shape="-11.47,9.39 -11.40,-11.42"/>
        <lane id=":clusterJ4_J5_J6_J7_13_1" index="1" speed="13.89" length="20.82" shape="-8.27,9.41 -8.20,-11.41"/>
    </edge>
    <edge id=":clusterJ4_J5_J6_J7_15" function="internal">
        <lane id=":clusterJ4_J5_J6_J7_15_0" index="0" speed="9.26" length="5.01" shape="-8.27,9.41 -7.55,4.45"/>
    </edge>
    <edge id=":clusterJ4_J5_J6_J7_19" function="internal">
        <lane id=":clusterJ4_J5_J6_J7_19_0" index="0" speed="9.26" length="14.35" shape="-7.55,4.45 -7.51,4.15 -5.24,0.41 -1.48,-1.82 3.78,-2.55"/>
    </edge>

    <edge id="-E0" from="J1" to="clusterJ4_J5_J6_J7" priority="-1" shape="71.13,-0.62 2.85,-0.95">
        <lane id="-E0_0" index="0" speed="13.89" length="67.36" shape="71.11,4.18 3.75,3.85"/>
        <lane id="-E0_1" index="1" speed="13.89" length="67.36" shape="71.13,0.98 3.76,0.65"/>
    </edge>
    <edge id="-E0.68" from="clusterJ4_J5_J6_J7" to="J0" priority="-1" shape="2.85,-0.95 -69.31,-1.30">
        <lane id="-E0.68_0" index="0" speed="13.89" length="52.26" shape="-17.07,3.75 -69.33,3.50"/>
        <lane id="-E0.68_1" index="1" speed="13.89" length="52.26" shape="-17.05,0.55 -69.32,0.30"/>
    </edge>
    <edge id="-E1" from="J3" to="clusterJ4_J5_J6_J7" priority="-1" shape="-6.44,-56.90 -6.60,-10.41">
        <lane id="-E1_0" index="0" speed="13.89" length="45.50" shape="-1.64,-56.88 -1.80,-11.39"/>
        <lane id="-E1_1" index="1" speed="13.89" length="45.50" shape="-4.84,-56.90 -5.00,-11.40"/>
    </edge>
    <edge id="-E1.46" from="clusterJ4_J5_J6_J7" to="J2" priority="-1" shape="-6.60,-10.41 -6.88,66.44">
        <lane id="-E1.46_0" index="0" speed="13.89" length="57.03" shape="-1.87,9.43 -2.08,66.46"/>
        <lane id="-E1.46_1" index="1" speed="13.89" length="57.03" shape="-5.07,9.42 -5.28,66.44"/>
    </edge>
    <edge id="E0" from="J0" to="clusterJ4_J5_J6_J7" priority="-1" shape="-69.31,-1.30 -14.11,-1.03">
        <lane id="E0_0" index="0" speed="13.89" length="52.26" shape="-69.29,-6.10 -17.02,-5.85"/>
        <lane id="E0_1" index="1" speed="13.89" length="52.26" shape="-69.30,-2.90 -17.04,-2.65"/>
    </edge>
    <edge id="E0.55" from="clusterJ4_J5_J6_J7" to="J1" priority="-1" shape="-14.11,-1.03 71.13,-0.62">
        <lane id="E0.55_0" index="0" speed="13.89" length="67.36" shape="3.79,-5.75 71.16,-5.42"/>
        <lane id="E0.55_1" index="1" speed="13.89" length="67.36" shape="3.78,-2.55 71.14,-2.22"/>
    </edge>
    <edge id="E1" from="J2" to="clusterJ4_J5_J6_J7" priority="-1" shape="-6.88,66.44 -6.64,0.95">
        <lane id="E1_0" index="0" speed="13.89" length="57.03" shape="-11.68,66.42 -11.47,9.39"/>
        <lane id="E1_1" index="1" speed="13.89" length="57.03" shape="-8.48,66.43 -8.27,9.41"/>
    </edge>
    <edge id="E1.65" from="clusterJ4_J5_J6_J7" to="J3" priority="-1" shape="-6.64,0.95 -6.44,-56.90">
        <lane id="E1.65_0" index="0" speed="13.89" length="45.50" shape="-11.40,-11.42 -11.24,-56.92"/>
        <lane id="E1.65_1" index="1" speed="13.89" length="45.50" shape="-8.20,-11.41 -8.04,-56.91"/>
    </edge>

    <tlLogic id="clusterJ4_J5_J6_J7" type="static" programID="0" offset="0">
        <phase duration="42" state="GGGgrrrrGGGgrrrr"/>
        <phase duration="3"  state="yyyyrrrryyyyrrrr"/>
        <phase duration="42" state="rrrrGGGgrrrrGGGg"/>
        <phase duration="3"  state="rrrryyyyrrrryyyy"/>
    </tlLogic>

    <junction id="J0" type="dead_end" x="-69.31" y="-1.30" incLanes="-E0.68_0 -E0.68_1" intLanes="" shape="-69.31,-1.30 -69.34,5.10 -69.31,-1.30"/>
    <junction id="J1" type="dead_end" x="71.13" y="-0.62" incLanes="E0.55_0 E0.55_1" intLanes="" shape="71.13,-0.62 71.16,-7.02 71.13,-0.62"/>
    <junction id="J2" type="dead_end" x="-6.88" y="66.44" incLanes="-E1.46_0 -E1.46_1" intLanes="" shape="-6.88,66.44 -0.48,66.46 -6.88,66.44"/>
    <junction id="J3" type="dead_end" x="-6.44" y="-56.90" incLanes="E1.65_0 E1.65_1" intLanes="" shape="-6.44,-56.90 -12.84,-56.92 -6.44,-56.90"/>
    <junction id="clusterJ4_J5_J6_J7" type="traffic_light" x="-6.13" y="-2.86" incLanes="-E0_0 -E0_1 -E1_0 -E1_1 E0_0 E0_1 E1_0 E1_1" intLanes=":clusterJ4_J5_J6_J7_0_0 :clusterJ4_J5_J6_J7_1_0 :clusterJ4_J5_J6_J7_1_1 :clusterJ4_J5_J6_J7_16_0 :clusterJ4_J5_J6_J7_4_0 :clusterJ4_J5_J6_J7_5_0 :clusterJ4_J5_J6_J7_5_1 :clusterJ4_J5_J6_J7_17_0 :clusterJ4_J5_J6_J7_8_0 :clusterJ4_J5_J6_J7_9_0 :clusterJ4_J5_J6_J7_9_1 :clusterJ4_J5_J6_J7_18_0 :clusterJ4_J5_J6_J7_12_0 :clusterJ4_J5_J6_J7_13_0 :clusterJ4_J5_J6_J7_13_1 :clusterJ4_J5_J6_J7_19_0" shape="3.74,5.45 3.80,-7.35 1.57,-7.80 0.79,-8.37 0.24,-9.15 -0.09,-10.15 -0.20,-11.38 -13.00,-11.43 -13.45,-9.21 -14.01,-8.43 -14.79,-7.88 -15.79,-7.55 -17.01,-7.45 -17.08,5.35 -14.85,5.81 -14.07,6.37 -13.51,7.16 -13.18,8.16 -13.07,9.39 -0.27,9.43 0.18,7.21 0.74,6.44 1.52,5.89 2.52,5.56">
        <request index="0"  response="0000000000000000" foes="0000000001100000" cont="0"/>
        <request index="1"  response="1000000010000000" foes="1111100011100000" cont="0"/>
        <request index="2"  response="1000000010000000" foes="1111100011100000" cont="0"/>
        <request index="3"  response="1000011010000000" foes="1110011011100000" cont="1"/>
        <request index="4"  response="0000011000000000" foes="0000011000000000" cont="0"/>
        <request index="5"  response="0000111000001111" foes="1000111000001111" cont="0"/>
        <request index="6"  response="0000111000001111" foes="1000111000001111" cont="0"/>
        <request index="7"  response="0110111000001110" foes="0110111000001110" cont="1"/>
        <request index="8"  response="0000000000000000" foes="0110000000000000" cont="0"/>
        <request index="9"  response="1000000010000000" foes="1110000011111000" cont="0"/>
        <request index="10" response="1000000010000000" foes="1110000011111000" cont="0"/>
        <request index="11" response="1000000010000110" foes="1110000011100110" cont="1"/>
        <request index="12" response="0000000000000110" foes="0000000000000110" cont="0"/>
        <request index="13" response="0000111100001110" foes="0000111110001110" cont="0"/>
        <request index="14" response="0000111100001110" foes="0000111110001110" cont="0"/>
        <request index="15" response="0000111001101110" foes="0000111001101110" cont="1"/>
    </junction>

    <junction id=":clusterJ4_J5_J6_J7_16_0" type="internal" x="-1.20" y="-0.08" incLanes=":clusterJ4_J5_J6_J7_3_0 E0_0 E0_1" intLanes=":clusterJ4_J5_J6_J7_5_0 :clusterJ4_J5_J6_J7_5_1 :clusterJ4_J5_J6_J7_7_0 :clusterJ4_J5_J6_J7_8_0 :clusterJ4_J5_J6_J7_9_0 :clusterJ4_J5_J6_J7_9_1 :clusterJ4_J5_J6_J7_13_0 :clusterJ4_J5_J6_J7_13_1 :clusterJ4_J5_J6_J7_15_0"/>
    <junction id=":clusterJ4_J5_J6_J7_17_0" type="internal" x="-5.73" y="-6.44" incLanes=":clusterJ4_J5_J6_J7_7_0 E1_0 E1_1" intLanes=":clusterJ4_J5_J6_J7_1_0 :clusterJ4_J5_J6_J7_1_1 :clusterJ4_J5_J6_J7_3_0 :clusterJ4_J5_J6_J7_9_0 :clusterJ4_J5_J6_J7_9_1 :clusterJ4_J5_J6_J7_11_0 :clusterJ4_J5_J6_J7_12_0 :clusterJ4_J5_J6_J7_13_0 :clusterJ4_J5_J6_J7_13_1"/>
    <junction id=":clusterJ4_J5_J6_J7_18_0" type="internal" x="-12.08" y="-1.91" incLanes=":clusterJ4_J5_J6_J7_11_0 -E0_0 -E0_1" intLanes=":clusterJ4_J5_J6_J7_0_0 :clusterJ4_J5_J6_J7_1_0 :clusterJ4_J5_J6_J7_1_1 :clusterJ4_J5_J6_J7_5_0 :clusterJ4_J5_J6_J7_5_1 :clusterJ4_J5_J6_J7_7_0 :clusterJ4_J5_J6_J7_13_0 :clusterJ4_J5_J6_J7_13_1 :clusterJ4_J5_J6_J7_15_0"/>
    <junction id=":clusterJ4_J5_J6_J7_19_0" type="internal" x="-7.55" y="4.45" incLanes=":clusterJ4_J5_J6_J7_15_0 -E1_0 -E1_1" intLanes=":clusterJ4_J5_J6_J7_1_0 :clusterJ4_J5_J6_J7_1_1 :clusterJ4_J5_J6_J7_3_0 :clusterJ4_J5_J6_J7_4_0 :clusterJ4_J5_J6_J7_5_0 :clusterJ4_J5_J6_J7_5_1 :clusterJ4_J5_J6_J7_9_0 :clusterJ4_J5_J6_J7_9_1 :clusterJ4_J5_J6_J7_11_0"/>

    <connection from="-E0" to="-E1.46" fromLane="0" toLane="0" via=":clusterJ4_J5_J6_J7_0_0" tl="clusterJ4_J5_J6_J7" linkIndex="0" dir="r" state="O"/>
    <connection from="-E0" to="-E0.68" fromLane="0" toLane="0" via=":clusterJ4_J5_J6_J7_1_0" tl="clusterJ4_J5_J6_J7" linkIndex="1" dir="s" state="O"/>
    <connection from="-E0" to="-E0.68" fromLane="1" toLane="1" via=":clusterJ4_J5_J6_J7_1_1" tl="clusterJ4_J5_J6_J7" linkIndex="2" dir="s" state="O"/>
    <connection from="-E0" to="E1.65" fromLane="1" toLane="1" via=":clusterJ4_J5_J6_J7_3_0" tl="clusterJ4_J5_J6_J7" linkIndex="3" dir="l" state="o"/>
    <connection from="-E1" to="E0.55" fromLane="0" toLane="0" via=":clusterJ4_J5_J6_J7_4_0" tl="clusterJ4_J5_J6_J7" linkIndex="4" dir="r" state="o"/>
    <connection from="-E1" to="-E1.46" fromLane="0" toLane="0" via=":clusterJ4_J5_J6_J7_5_0" tl="clusterJ4_J5_J6_J7" linkIndex="5" dir="s" state="o"/>
    <connection from="-E1" to="-E1.46" fromLane="1" toLane="1" via=":clusterJ4_J5_J6_J7_5_1" tl="clusterJ4_J5_J6_J7" linkIndex="6" dir="s" state="o"/>
    <connection from="-E1" to="-E0.68" fromLane="1" toLane="1" via=":clusterJ4_J5_J6_J7_7_0" tl="clusterJ4_J5_J6_J7" linkIndex="7" dir="l" state="o"/>
    <connection from="E0" to="E1.65" fromLane="0" toLane="0" via=":clusterJ4_J5_J6_J7_8_0" tl="clusterJ4_J5_J6_J7" linkIndex="8" dir="r" state="O"/>
    <connection from="E0" to="E0.55" fromLane="0" toLane="0" via=":clusterJ4_J5_J6_J7_9_0" tl="clusterJ4_J5_J6_J7" linkIndex="9" dir="s" state="O"/>
    <connection from="E0" to="E0.55" fromLane="1" toLane="1" via=":clusterJ4_J5_J6_J7_9_1" tl="clusterJ4_J5_J6_J7" linkIndex="10" dir="s" state="O"/>
    <connection from="E0" to="-E1.46" fromLane="1" toLane="1" via=":clusterJ4_J5_J6_J7_11_0" tl="clusterJ4_J5_J6_J7" linkIndex="11" dir="l" state="o"/>
    <connection from="E1" to="-E0.68" fromLane="0" toLane="0" via=":clusterJ4_J5_J6_J7_12_0" tl="clusterJ4_J5_J6_J7" linkIndex="12" dir="r" state="o"/>
    <connection from="E1" to="E1.65" fromLane="0" toLane="0" via=":clusterJ4_J5_J6_J7_13_0" tl="clusterJ4_J5_J6_J7" linkIndex="13" dir="s" state="o"/>
    <connection from="E1" to="E1.65" fromLane="1" toLane="1" via=":clusterJ4_J5_J6_J7_13_1" tl="clusterJ4_J5_J6_J7" linkIndex="14" dir="s" state="o"/>
    <connection from="E1" to="E0.55" fromLane="1" toLane="1" via=":clusterJ4_J5_J6_J7_15_0" tl="clusterJ4_J5_J6_J7" linkIndex="15" dir="l" state="o"/>

    <connection from=":clusterJ4_J5_J6_J7_0" to="-E1.46" fromLane="0" toLane="0" dir="r" state="M"/>
    <connection from=":clusterJ4_J5_J6_J7_1" to="-E0.68" fromLane="0" toLane="0" dir="s" state="M"/>
    <connection from=":clusterJ4_J5_J6_J7_1" to="-E0.68" fromLane="1" toLane="1" dir="s" state="M"/>
    <connection from=":clusterJ4_J5_J6_J7_3" to="E1.65" fromLane="0" toLane="1" via=":clusterJ4_J5_J6_J7_16_0" dir="l" state="m"/>
    <connection from=":clusterJ4_J5_J6_J7_16" to="E1.65" fromLane="0" toLane="1" dir="l" state="M"/>
    <connection from=":clusterJ4_J5_J6_J7_4" to="E0.55" fromLane="0" toLane="0" dir="r" state="M"/>
    <connection from=":clusterJ4_J5_J6_J7_5" to="-E1.46" fromLane="0" toLane="0" dir="s" state="M"/>
    <connection from=":clusterJ4_J5_J6_J7_5" to="-E1.46" fromLane="1" toLane="1" dir="s" state="M"/>
    <connection from=":clusterJ4_J5_J6_J7_7" to="-E0.68" fromLane="0" toLane="1" via=":clusterJ4_J5_J6_J7_17_0" dir="l" state="m"/>
    <connection from=":clusterJ4_J5_J6_J7_17" to="-E0.68" fromLane="0" toLane="1" dir="l" state="M"/>
    <connection from=":clusterJ4_J5_J6_J7_8" to="E1.65" fromLane="0" toLane="0" dir="r" state="M"/>
    <connection from=":clusterJ4_J5_J6_J7_9" to="E0.55" fromLane="0" toLane="0" dir="s" state="M"/>
    <connection from=":clusterJ4_J5_J6_J7_9" to="E0.55" fromLane="1" toLane="1" dir="s" state="M"/>
    <connection from=":clusterJ4_J5_J6_J7_11" to="-E1.46" fromLane="0" toLane="1" via=":clusterJ4_J5_J6_J7_18_0" dir="l" state="m"/>
    <connection from=":clusterJ4_J5_J6_J7_18" to="-E1.46" fromLane="0" toLane="1" dir="l" state="M"/>
    <connection from=":clusterJ4_J5_J6_J7_12" to="-E0.68" fromLane="0" toLane="0" dir="r" state="M"/>
    <connection from=":clusterJ4_J5_J6_J7_13" to="E1.65" fromLane="0" toLane="0" dir="s" state="M"/>
    <connection from=":clusterJ4_J5_J6_J7_13" to="E1.65" fromLane="1" toLane="1" dir="s" state="M"/>
    <connection from=":clusterJ4_J5_J6_J7_15" to="E0.55" fromLane="0" toLane="1" via=":clusterJ4_J5_J6_J7_19_0" dir="l" state="m"/>
    <connection from=":clusterJ4_J5_J6_J7_19" to="E0.55" fromLane="0" toLane="1" dir="l" state="M"/>

</net>
